PERFORM/On Peak 2019 v23_Perform_NY/On Peak 2019 v23/On Peak 2019 v22/nyisoOnPeakv22_matpower2psse.raw
0, 100, 33, 0, 0, 60  / 16-Sep-2022 16:15:49 - MATPOWER 7.1


     1, 'MORTIMER    ',       115, 1,   66,   66, 1,  1.00316807,  90.8991679,  1.1,  0.9,  1.1,  0.9
     2, 'UNKNOWN12411',        69, 1,   70,   70, 1,  1.00725309,  77.5373466,  1.1,  0.9,  1.1,  0.9
     3, 'UNKNOWN12412',       115, 1,   70,   70, 1,   1.0090462,  82.9350006,  1.1,  0.9,  1.1,  0.9
     4, 'UNKNOWN12412',       115, 1,   68,   68, 1, 0.991855896,  94.6920332,  1.1,  0.9,  1.1,  0.9
     5, 'UNKNOWN12412',       115, 1,   70,   70, 1,  1.00632063,  86.3203165,  1.1,  0.9,  1.1,  0.9
     6, 'UNKNOWN12412',       115, 2,   70,   70, 1,        1.02,  83.0153373,  1.1,  0.9,  1.1,  0.9
     7, 'UNKNOWN12412',       115, 1,   70,   70, 1,   1.0165813,  82.2589804,  1.1,  0.9,  1.1,  0.9
     8, 'UNKNOWN12412',       115, 1,   70,   70, 1,  1.01920922,  82.4869802,  1.1,  0.9,  1.1,  0.9
     9, 'UNKNOWN12413',       115, 1,   71,   71, 1,  1.01310795,  69.3410744,  1.1,  0.9,  1.1,  0.9
    10, 'UNKNOWN12413',       115, 1,   68,   68, 1, 0.983569633,  91.2487689,  1.1,  0.9,  1.1,  0.9
    11, 'UNKNOWN12413',       115, 1,   70,   70, 1,   1.0093744,  82.8913731,  1.1,  0.9,  1.1,  0.9
    12, 'UNKNOWN12413',       115, 1,   70,   70, 1,  1.01741872,  81.3891048,  1.1,  0.9,  1.1,  0.9
    13, 'UNKNOWN12413',       115, 1,   70,   70, 1,  1.01406121,  80.5959804,  1.1,  0.9,  1.1,  0.9
    14, 'UNKNOWN12414',       115, 1,   69,   69, 1,  1.00648367,  78.6883867,  1.1,  0.9,  1.1,  0.9
    15, 'UNKNOWN12414',       115, 2,   69,   69, 1,        1.02,  100.002186,  1.1,  0.9,  1.1,  0.9
    16, 'BOONVILLE   ',       115, 1,   69,   69, 1,  1.01301413,  88.5323322,  1.1,  0.9,  1.1,  0.9
    17, 'UNKNOWN12414',       138, 1,   75,   75, 1,  1.01220295,  48.8549025,  1.1,  0.9,  1.1,  0.9
    18, 'GLENWOOD LAN',        69, 1,   75,   75, 1,  1.01691754,  59.2435456,  1.1,  0.9,  1.1,  0.9
    19, 'NORTHPORT   ',       115, 2,   75,   75, 1,        1.02,  60.4158671,  1.1,  0.9,  1.1,  0.9
    20, 'UNKNOWN12415',       115, 1,   69,   69, 1,  1.01761804,  101.872151,  1.1,  0.9,  1.1,  0.9
    21, 'UNKNOWN12415',       115, 1,   69,   69, 1,  1.01829375,  101.914908,  1.1,  0.9,  1.1,  0.9
    22, 'UNKNOWN12415',        69, 1,   70,   70, 1,  1.00960918,  77.2019776,  1.1,  0.9,  1.1,  0.9
    23, 'UNKNOWN12416',       115, 1,   69,   69, 1,  1.01605232,  80.0673267,  1.1,  0.9,  1.1,  0.9
    24, 'UNKNOWN12416',       115, 2,   67,   67, 1,        1.02,  98.7551035,  1.1,  0.9,  1.1,  0.9
    25, 'UNKNOWN12416',       115, 1,   69,   69, 1,  1.01994493,  97.6505647,  1.1,  0.9,  1.1,  0.9
    26, 'UNKNOWN12416',       345, 1,   74,   74, 1,  1.02001509,  63.3066661,  1.1,  0.9,  1.1,  0.9
    27, 'UNKNOWN12417',       115, 2,   67,   67, 1,        1.02,  93.0534007,  1.1,  0.9,  1.1,  0.9
    28, 'UNKNOWN12417',       115, 1,   69,   69, 1,  1.01996683,  98.6161802,  1.1,  0.9,  1.1,  0.9
    29, 'UNKNOWN12419',       115, 2,   67,   67, 1,        1.02,  93.4955826,  1.1,  0.9,  1.1,  0.9
    30, 'UNKNOWN12419',       115, 2,   67,   67, 1,        1.02,  94.2414765,  1.1,  0.9,  1.1,  0.9
    31, 'UNKNOWN12419',       115, 2,   70,   70, 1,        1.02,  83.6337308,  1.1,  0.9,  1.1,  0.9
    32, 'UNKNOWN12419',       115, 2,   70,   70, 1,        1.02,  83.6503331,  1.1,  0.9,  1.1,  0.9
    33, 'UNKNOWN12420',       115, 2,   65,   65, 1,        1.02,  99.7474819,  1.1,  0.9,  1.1,  0.9
    34, 'HAMMERHILL  ',       115, 2,   67,   67, 1,        1.02,  102.882525,  1.1,  0.9,  1.1,  0.9
    35, 'UNKNOWN12420',       115, 1,   68,   68, 1, 0.999210453,  93.0254096,  1.1,  0.9,  1.1,  0.9
    36, 'UNKNOWN12420',       115, 1,   68,   68, 1, 0.999094396,   93.059866,  1.1,  0.9,  1.1,  0.9
    37, 'UNKNOWN12420',       115, 2,   65,   65, 1,        1.02,  97.0702005,  1.1,  0.9,  1.1,  0.9
    38, 'BLISS WINDPA',       115, 2,   65,   65, 1,        1.02,  98.2904129,  1.1,  0.9,  1.1,  0.9
    39, 'UNKNOWN12422',       230, 2,   65,   65, 1,        1.02,  101.867711,  1.1,  0.9,  1.1,  0.9
    40, 'UNKNOWN12422',       115, 1,   69,   69, 1,  1.01923988,  104.132486,  1.1,  0.9,  1.1,  0.9
    41, 'UNKNOWN12422',       115, 2,   65,   65, 1,        1.02,   96.108932,  1.1,  0.9,  1.1,  0.9
    42, 'UNKNOWN12422',       115, 1,   65,   65, 1,  1.02001885,  94.5962566,  1.1,  0.9,  1.1,  0.9
    43, 'DUGAN       ',       115, 1,   65,   65, 1,   1.0189144,  94.3100637,  1.1,  0.9,  1.1,  0.9
    44, 'UNKNOWN12423',       115, 1,   65,   65, 1,  1.01892402,  94.3158177,  1.1,  0.9,  1.1,  0.9
    45, 'TAP124231   ',       115, 1,   65,   65, 1,  1.01893228,  94.3177986,  1.1,  0.9,  1.1,  0.9
    46, 'W OLEAN     ',       115, 1,   65,   65, 1,  1.01996862,  94.5838636,  1.1,  0.9,  1.1,  0.9
    47, 'VALLEY CAT  ',       115, 1,   65,   65, 1,  1.02169143,    94.88444,  1.1,  0.9,  1.1,  0.9
    48, 'MACHIAS #13 ',       115, 1,   65,   65, 1,  1.01996448,  95.1198852,  1.1,  0.9,  1.1,  0.9
    49, 'VALLEY      ',       115, 1,   69,   69, 1,  1.01786883,  82.2967427,  1.1,  0.9,  1.1,  0.9
    50, 'UNKNOWN12424',       115, 1,   69,   69, 1,  1.00706312,  99.7270739,  1.1,  0.9,  1.1,  0.9
    51, 'UNKNOWN12425',       115, 1,   67,   67, 1,  1.01792761,  94.3002388,  1.1,  0.9,  1.1,  0.9
    52, 'UNKNOWN12425',       115, 2,   67,   67, 1,        1.02,   94.725945,  1.1,  0.9,  1.1,  0.9
    53, 'UNKNOWN12425',       115, 2,   67,   67, 1,        1.02,  96.6338901,  1.1,  0.9,  1.1,  0.9
    54, 'UNKNOWN12425',       230, 1,   67,   67, 1,  1.02674455,  95.4869597,  1.1,  0.9,  1.1,  0.9
    55, 'UNKNOWN12425',       115, 1,   67,   67, 1,   1.0174873,  91.2264876,  1.1,  0.9,  1.1,  0.9
    56, 'UNKNOWN12425',       115, 1,   67,   67, 1,  1.01699258,  90.5703204,  1.1,  0.9,  1.1,  0.9
    57, 'UNKNOWN12426',       115, 1,   67,   67, 1,  1.01710614,  89.9262481,  1.1,  0.9,  1.1,  0.9
    58, 'UNKNOWN12432',       115, 1,   67,   67, 1,  1.01927142,  102.571911,  1.1,  0.9,  1.1,  0.9
    59, 'UNKNOWN12432',       115, 1,   69,   69, 1,  1.02013981,  97.6438653,  1.1,  0.9,  1.1,  0.9
    60, 'UNKNOWN12432',        69, 2,   69,   69, 1,        1.02,  77.6213563,  1.1,  0.9,  1.1,  0.9
    61, 'UNKNOWN12433',       115, 1,   67,   67, 1,   1.0173698,  89.8441771,  1.1,  0.9,  1.1,  0.9
    62, 'UNKNOWN12433',       345, 1,   70,   70, 1,  1.02001364,  84.8193512,  1.1,  0.9,  1.1,  0.9
    63, 'UNKNOWN12433',       345, 2,   70,   70, 1,        1.02,  84.8351262,  1.1,  0.9,  1.1,  0.9
    64, 'UNKNOWN12433',       115, 1,   69,   69, 1,   1.0049975,  97.1539169,  1.1,  0.9,  1.1,  0.9
    65, 'BERRY RD    ',       115, 1,   65,   65, 1,  1.02104969,  93.6361774,  1.1,  0.9,  1.1,  0.9
    66, 'BAKER ST    ',       115, 1,   65,   65, 1,  1.01801897,  92.5885581,  1.1,  0.9,  1.1,  0.9
    67, 'CUMMINS     ',       115, 1,   65,   65, 1,  1.01809809,  92.5860958,  1.1,  0.9,  1.1,  0.9
    68, 'SILVER CREEK',       115, 1,   65,   65, 1,  1.01714302,  93.2090877,  1.1,  0.9,  1.1,  0.9
    69, 'FALCONER    ',       115, 2,   65,   65, 1,        1.02,  93.2821615,  1.1,  0.9,  1.1,  0.9
    70, 'UNKNOWN12434',       115, 1,   65,   65, 1,  1.01983988,  93.2419831,  1.1,  0.9,  1.1,  0.9
    71, 'WESTFIELD VI',       115, 1,   65,   65, 1,  1.02259792,  93.7822761,  1.1,  0.9,  1.1,  0.9
    72, 'UNKNOWN12434',       115, 1,   65,   65, 1,  1.02013028,  93.5949575,  1.1,  0.9,  1.1,  0.9
    73, 'LUDIUM      ',       115, 1,   65,   65, 1,  1.02007554,  93.5858788,  1.1,  0.9,  1.1,  0.9
    74, 'BENNETT RD  ',       115, 1,   65,   65, 1,  1.01989665,  93.5619465,  1.1,  0.9,  1.1,  0.9
    75, 'E DUNKIRK   ',       115, 1,   65,   65, 1,  1.01968734,   93.530268,  1.1,  0.9,  1.1,  0.9
    76, 'UNKNOWN12435',       115, 1,   65,   65, 1,  1.01967886,  93.5282548,  1.1,  0.9,  1.1,  0.9
    77, 'MOON SWITCHE',       115, 1,   65,   65, 1,  1.02037202,  93.3686651,  1.1,  0.9,  1.1,  0.9
    78, 'HARTFIELD   ',       115, 1,   65,   65, 1,  1.02158158,  93.5380102,  1.1,  0.9,  1.1,  0.9
    79, 'EAST 13TH ST',       345, 2,   74,   74, 1,        1.02,  63.0899876,  1.1,  0.9,  1.1,  0.9
    80, 'UNKNOWN12447',       115, 2,   69,   69, 1,        1.02,   98.661152,  1.1,  0.9,  1.1,  0.9
    81, 'WESTOVER    ',       115, 1,   67,   67, 1,  1.02208958,  87.6842153,  1.1,  0.9,  1.1,  0.9
    82, 'UNKNOWN12452',       115, 2,   69,   69, 1,        1.02,  86.1521463,  1.1,  0.9,  1.1,  0.9
    83, 'UNKNOWN12452',       115, 2,   69,   69, 1,        1.02,  97.7023834,  1.1,  0.9,  1.1,  0.9
    84, 'UNKNOWN12452',       115, 2,   70,   70, 1,        1.02,  83.5306601,  1.1,  0.9,  1.1,  0.9
    85, 'COLD SPRING ',       115, 1,   65,   65, 1,  1.01789021,  92.8698754,  1.1,  0.9,  1.1,  0.9
    86, 'UNKNOWN12457',       115, 1,   65,   65, 1,   1.0180552,  95.6061929,  1.1,  0.9,  1.1,  0.9
    87, 'UNKNOWN12457',       115, 1,   65,   65, 1,  1.01762895,  95.7753672,  1.1,  0.9,  1.1,  0.9
    88, 'YORKSHIRE   ',       115, 1,   65,   65, 1,  1.01747778,  96.0484635,  1.1,  0.9,  1.1,  0.9
    89, 'ARCADE      ',       115, 1,   65,   65, 1,  1.01746717,  96.1445234,  1.1,  0.9,  1.1,  0.9
    90, 'BIXBY HILL  ',       115, 1,   65,   65, 1,  1.01763616,  96.4165162,  1.1,  0.9,  1.1,  0.9
    91, 'UNKNOWN12458',       115, 1,   65,   65, 1,  1.01799674,  96.8071571,  1.1,  0.9,  1.1,  0.9
    92, 'UNKNOWN12458',       115, 1,   66,   66, 1,   1.0128969,  92.5795674,  1.1,  0.9,  1.1,  0.9
    93, 'UNKNOWN12458',       115, 1,   66,   66, 1,  1.01869112,  95.6387866,  1.1,  0.9,  1.1,  0.9
    94, 'UNKNOWN12458',       115, 1,   66,   66, 1,  1.01920175,  98.0589305,  1.1,  0.9,  1.1,  0.9
    95, 'UNKNOWN12458',       115, 2,   66,   66, 1,        1.02,  98.2461108,  1.1,  0.9,  1.1,  0.9
    96, 'UNKNOWN12458',       115, 1,   66,   66, 1,  1.01712084,  97.5498794,  1.1,  0.9,  1.1,  0.9
    97, 'UNKNOWN12458',       115, 1,   66,   66, 1,  1.01718731,  97.5658284,  1.1,  0.9,  1.1,  0.9
    98, 'UNKNOWN12458',       115, 1,   66,   66, 1,  1.01426419,  93.2424676,  1.1,  0.9,  1.1,  0.9
    99, 'UNKNOWN12458',       115, 1,   66,   66, 1,  1.01206916,  92.5475301,  1.1,  0.9,  1.1,  0.9
   100, 'UNKNOWN12458',       115, 1,   66,   66, 1,  1.01029136,  91.9497518,  1.1,  0.9,  1.1,  0.9
   101, 'UNKNOWN12462',       115, 1,   65,   65, 1,   1.0010123,  92.1041336,  1.1,  0.9,  1.1,  0.9
   102, 'N AKRON     ',       115, 1,   65,   65, 1,  1.00104546,  92.1117676,  1.1,  0.9,  1.1,  0.9
   103, 'UNKNOWN12462',       115, 1,   65,   65, 1,  1.00180368,  92.3026431,  1.1,  0.9,  1.1,  0.9
   104, 'TONAWANDA   ',       115, 1,   65,   65, 1,  1.01449845,  95.6129144,  1.1,  0.9,  1.1,  0.9
   105, 'GETZVILLE   ',       115, 1,   65,   65, 1,  1.01463432,  95.4830196,  1.1,  0.9,  1.1,  0.9
   106, 'UNKNOWN12463',       115, 1,   65,   65, 1,  1.01524375,  95.6139221,  1.1,  0.9,  1.1,  0.9
   107, 'UNKNOWN12463',       115, 1,   65,   65, 1,  1.01651266,  95.9086243,  1.1,  0.9,  1.1,  0.9
   108, 'UNKNOWN12463',       115, 1,   67,   67, 1,  1.02166785,   89.784367,  1.1,  0.9,  1.1,  0.9
   109, 'UNKNOWN12463',       115, 1,   67,   67, 1,  1.02120296,  90.0795996,  1.1,  0.9,  1.1,  0.9
   110, 'UNKNOWN12464',       115, 1,   67,   67, 1,  1.02002444,   88.215074,  1.1,  0.9,  1.1,  0.9
   111, 'UNKNOWN12464',       115, 1,   67,   67, 1,  1.01762076,  89.3269675,  1.1,  0.9,  1.1,  0.9
   112, 'UNKNOWN12464',       115, 1,   67,   67, 1,  1.01849652,  86.9706176,  1.1,  0.9,  1.1,  0.9
   113, 'UNKNOWN12464',       115, 1,   67,   67, 1,  1.01777293,  86.9141881,  1.1,  0.9,  1.1,  0.9
   114, 'UNKNOWN12464',       115, 1,   67,   67, 1,  1.01802437,  87.1032503,  1.1,  0.9,  1.1,  0.9
   115, 'KATTELVILLE ',       115, 1,   67,   67, 1,  1.02073573,  86.4063051,  1.1,  0.9,  1.1,  0.9
   116, 'UNKNOWN12465',       115, 2,   67,   67, 1,        1.02,  88.1395851,  1.1,  0.9,  1.1,  0.9
   117, 'NORTH ENDICO',       115, 1,   67,   67, 1,  1.02067318,  87.3592347,  1.1,  0.9,  1.1,  0.9
   118, 'UNKNOWN12465',       115, 1,   67,   67, 1,   1.0185804,  87.0467835,  1.1,  0.9,  1.1,  0.9
   119, 'UNKNOWN12465',       115, 1,   67,   67, 1,  1.01836646,  87.1371094,  1.1,  0.9,  1.1,  0.9
   120, 'UNKNOWN12465',       115, 1,   67,   67, 1,  1.01860111,  87.3558225,  1.1,  0.9,  1.1,  0.9
   121, 'UNKNOWN12466',       115, 1,   67,   67, 1,  1.01981178,  87.1831157,  1.1,  0.9,  1.1,  0.9
   122, 'ROBBLE AVE  ',       115, 1,   67,   67, 1,  1.02085755,  87.3981053,  1.1,  0.9,  1.1,  0.9
   123, 'CASTLE GARDE',       115, 1,   67,   67, 1,  1.01947791,  87.1236004,  1.1,  0.9,  1.1,  0.9
   124, 'UNKNOWN12466',       115, 1,   67,   67, 1,  1.01909706,  90.4145579,  1.1,  0.9,  1.1,  0.9
   125, 'UNKNOWN12470',       115, 1,   69,   69, 1,  1.01714662,  106.897744,  1.1,  0.9,  1.1,  0.9
   126, 'UNKNOWN12470',       115, 1,   69,   69, 1,  1.01715013,  106.868398,  1.1,  0.9,  1.1,  0.9
   127, 'UNKNOWN12470',       115, 2,   70,   70, 1,        1.02,   84.475777,  1.1,  0.9,  1.1,  0.9
   128, 'UNKNOWN12470',       115, 2,   66,   66, 1,        1.02,  98.6261125,  1.1,  0.9,  1.1,  0.9
   129, 'UNKNOWN12470',       115, 1,   66,   66, 1,  1.00587568,  88.8414011,  1.1,  0.9,  1.1,  0.9
   130, 'UNKNOWN12470',       115, 1,   66,   66, 1,  1.00448161,  89.6691884,  1.1,  0.9,  1.1,  0.9
   131, 'UNKNOWN12471',       115, 1,   67,   67, 1,  1.01803003,  94.3267957,  1.1,  0.9,  1.1,  0.9
   132, 'UNKNOWN12472',       230, 1,   67,   67, 1,  1.02120514,  97.2043454,  1.1,  0.9,  1.1,  0.9
   133, 'UNKNOWN12472',       115, 1,   67,   67, 1,  1.01791473,  89.4854156,  1.1,  0.9,  1.1,  0.9
   134, 'ANGOLA      ',       115, 1,   65,   65, 1,  1.01413254,  92.9349888,  1.1,  0.9,  1.1,  0.9
   135, 'SPRINGVILLE ',       115, 1,   65,   65, 1,  1.01730318,  95.2287974,  1.1,  0.9,  1.1,  0.9
   136, 'COBBLE HILL ',       115, 1,   65,   65, 1,  1.01714775,  95.2921687,  1.1,  0.9,  1.1,  0.9
   137, 'BIG TREE    ',       115, 1,   65,   65, 1,  1.01972527,  95.3575539,  1.1,  0.9,  1.1,  0.9
   138, 'UNKNOWN12474',       230, 1,   65,   65, 1,   1.0195413,  101.683406,  1.1,  0.9,  1.1,  0.9
   139, 'PERRY #162  ',       115, 1,   65,   65, 1,   1.0180215,  98.0058004,  1.1,  0.9,  1.1,  0.9
   140, 'SOUTH PERRY ',       115, 1,   65,   65, 1,  1.01806501,    98.02203,  1.1,  0.9,  1.1,  0.9
   141, 'UNKNOWN12474',       115, 1,   65,   65, 1,  1.01347022,  96.3759073,  1.1,  0.9,  1.1,  0.9
   142, 'UNKNOWN12474',       115, 1,   65,   65, 1,  1.01269714,  96.0614454,  1.1,  0.9,  1.1,  0.9
   143, 'UNKNOWN12474',       115, 1,   65,   65, 1,  1.02384014,  95.9692139,  1.1,  0.9,  1.1,  0.9
   144, 'UNKNOWN12475',       115, 1,   65,   65, 1,  1.02123044,  95.6180133,  1.1,  0.9,  1.1,  0.9
   145, 'ERIE ST     ',       115, 1,   65,   65, 1,  1.01984892,  95.4569137,  1.1,  0.9,  1.1,  0.9
   146, 'DEPEW       ',       115, 1,   65,   65, 1,   1.0194553,  95.3450602,  1.1,  0.9,  1.1,  0.9
   147, 'UNKNOWN12482',       115, 1,   67,   67, 1,  1.01846794,  90.7519651,  1.1,  0.9,  1.1,  0.9
   148, 'UNKNOWN12482',       115, 1,   67,   67, 1,  1.01949175,  89.3810765,  1.1,  0.9,  1.1,  0.9
   149, 'UNKNOWN12482',       115, 1,   67,   67, 1,  1.01955425,  89.4006454,  1.1,  0.9,  1.1,  0.9
   150, 'UNKNOWN12482',       115, 1,   67,   67, 1,  1.01998823,  89.3502034,  1.1,  0.9,  1.1,  0.9
   151, 'UNKNOWN12482',       115, 1,   67,   67, 1,  1.01999673,  89.3502148,  1.1,  0.9,  1.1,  0.9
   152, 'UNKNOWN12483',       115, 1,   67,   67, 1,  1.01963054,  93.9672559,  1.1,  0.9,  1.1,  0.9
   153, 'LABRADOR    ',       115, 1,   67,   67, 1,   1.0155789,  88.0815933,  1.1,  0.9,  1.1,  0.9
   154, 'CORTLAND    ',       115, 1,   67,   67, 1,  1.01550741,  88.9696485,  1.1,  0.9,  1.1,  0.9
   155, 'UNKNOWN12483',       115, 1,   67,   67, 1,  1.01525228,  88.9056667,  1.1,  0.9,  1.1,  0.9
   156, 'STARR RD    ',       115, 1,   67,   67, 1,  1.01477916,  88.7530243,  1.1,  0.9,  1.1,  0.9
   157, 'SUNY        ',       115, 1,   67,   67, 1,  1.01476572,   88.745216,  1.1,  0.9,  1.1,  0.9
   158, 'UNKNOWN12483',       115, 1,   67,   67, 1,  1.01491059,  88.7757643,  1.1,  0.9,  1.1,  0.9
   159, 'DAVIS RD    ',       115, 1,   65,   65, 1,  1.02242383,  95.6328567,  1.1,  0.9,  1.1,  0.9
   160, 'UNKNOWN12494',       115, 1,   65,   65, 1,   1.0189493,  95.3379632,  1.1,  0.9,  1.1,  0.9
   161, 'UNKNOWN12494',       115, 1,   65,   65, 1,  1.01599934,  94.3939889,  1.1,  0.9,  1.1,  0.9
   162, 'UNKNOWN12494',       115, 1,   65,   65, 1,  1.01593143,  94.3783412,  1.1,  0.9,  1.1,  0.9
   163, 'UNKNOWN12494',       115, 1,   65,   65, 1,  1.01580492,  94.3505388,  1.1,  0.9,  1.1,  0.9
   164, 'UNKNOWN12494',       115, 1,   65,   65, 1,   1.0158005,  94.3494726,  1.1,  0.9,  1.1,  0.9
   165, 'UNKNOWN12494',       115, 1,   65,   65, 1,  1.01616713,   95.118853,  1.1,  0.9,  1.1,  0.9
   166, 'UNKNOWN12494',       115, 1,   65,   65, 1,  1.01640344,  95.1772137,  1.1,  0.9,  1.1,  0.9
   167, 'PINE GROVE  ',       115, 1,   67,   67, 1,  1.01225652,  93.1127395,  1.1,  0.9,  1.1,  0.9
   168, 'BRIDGEPORT  ',       115, 1,   69,   69, 1,  1.01307076,  90.3600537,  1.1,  0.9,  1.1,  0.9
   169, 'UNKNOWN12495',       115, 1,   67,   67, 1,  1.01293614,  92.6461393,  1.1,  0.9,  1.1,  0.9
   170, 'UNKNOWN12495',       115, 1,   67,   67, 1,  1.01366915,  92.5428574,  1.1,  0.9,  1.1,  0.9
   171, 'TEAL        ',       115, 1,   67,   67, 1,  1.01334695,  92.5242701,  1.1,  0.9,  1.1,  0.9
   172, 'HOPKINS     ',       115, 1,   67,   67, 1,  1.01144601,  92.9003894,  1.1,  0.9,  1.1,  0.9
   173, 'WOODARD     ',       115, 1,   67,   67, 1,  1.01012625,  93.5238948,  1.1,  0.9,  1.1,  0.9
   174, 'BELMONT     ',       115, 1,   67,   67, 1,  1.00945331,  93.2283729,  1.1,  0.9,  1.1,  0.9
   175, 'UNKNOWN12496',       115, 1,   67,   67, 1,  1.00844341,  92.9703557,  1.1,  0.9,  1.1,  0.9
   176, 'UNKNOWN12496',       115, 1,   67,   67, 1,  1.00725157,  92.6189527,  1.1,  0.9,  1.1,  0.9
   177, 'UNKNOWN12496',       115, 1,   67,   67, 1,  1.00747493,  92.6782687,  1.1,  0.9,  1.1,  0.9
   178, 'UNKNOWN12496',       115, 1,   67,   67, 1,  1.00729526,  92.6307329,  1.1,  0.9,  1.1,  0.9
   179, 'UNKNOWN12496',       115, 1,   67,   67, 1,  1.00737715,  92.6480269,  1.1,  0.9,  1.1,  0.9
   180, 'MILTON      ',       115, 1,   67,   67, 1,   1.0082152,  92.8275808,  1.1,  0.9,  1.1,  0.9
   181, 'UNKNOWN12497',       115, 1,   67,   67, 1,  1.00726078,  92.6222911,  1.1,  0.9,  1.1,  0.9
   182, 'ANHEUSER BUS',       115, 1,   67,   67, 1,  1.00359789,  94.7862402,  1.1,  0.9,  1.1,  0.9
   183, 'LYSANDER    ',       115, 1,   67,   67, 1,  1.00363385,  94.7949977,  1.1,  0.9,  1.1,  0.9
   184, 'G E         ',       115, 1,   67,   67, 1,  1.01040944,  93.6432135,  1.1,  0.9,  1.1,  0.9
   185, 'SORRELL HILL',       115, 1,   67,   67, 1,  1.00478878,   94.610962,  1.1,  0.9,  1.1,  0.9
   186, 'UNKNOWN12501',       115, 1,   69,   69, 1,  1.02515369,  80.8774809,  1.1,  0.9,  1.1,  0.9
   187, 'UNKNOWN12501',       115, 1,   69,   69, 1,  1.02210022,  81.7657658,  1.1,  0.9,  1.1,  0.9
   188, 'UNKNOWN12502',       115, 1,   69,   69, 1, 0.985068249,  74.3575171,  1.1,  0.9,  1.1,  0.9
   189, 'UNKNOWN12502',       115, 1,   69,   69, 1, 0.993228185,  77.3349031,  1.1,  0.9,  1.1,  0.9
   190, 'UNKNOWN12502',       115, 1,   68,   68, 1,  1.00114469,  97.5962115,  1.1,  0.9,  1.1,  0.9
   191, 'UNKNOWN12502',       115, 1,   68,   68, 1, 0.989865542,  91.6123934,  1.1,  0.9,  1.1,  0.9
   192, 'UNKNOWN12503',       115, 1,   68,   68, 1, 0.996099794,  94.6783187,  1.1,  0.9,  1.1,  0.9
   193, 'UNKNOWN12503',       115, 1,   68,   68, 1, 0.991599852,  94.6306229,  1.1,  0.9,  1.1,  0.9
   194, 'UNKNOWN12505',       115, 1,   70,   70, 1,  1.01523508,  80.7269491,  1.1,  0.9,  1.1,  0.9
   195, 'UNKNOWN12505',       115, 1,   70,   70, 1,  1.01518745,  80.7150391,  1.1,  0.9,  1.1,  0.9
   196, 'RISER125055 ',       115, 1,   70,   70, 1,  1.01441106,  80.6259632,  1.1,  0.9,  1.1,  0.9
   197, 'UNKNOWN12511',       115, 1,   66,   66, 1,  1.00963799,  92.6891417,  1.1,  0.9,  1.1,  0.9
   198, 'HOGAN RD    ',       115, 1,   66,   66, 1, 0.998499147,  90.5556279,  1.1,  0.9,  1.1,  0.9
   199, 'UNKNOWN12511',       115, 1,   66,   66, 1,  1.00272261,  90.7920012,  1.1,  0.9,  1.1,  0.9
   200, 'STATION #52 ',       115, 1,   66,   66, 1,  1.00172363,  91.5124586,  1.1,  0.9,  1.1,  0.9
...
0 / END OF BUS DATA, BEGIN LOAD DATA
     1,  1, 1,   66,   66,   115.188,         0, 0, 0, 0, 0, 1, 1, 0
     2,  1, 1,   70,   70,  1.538569,         0, 0, 0, 0, 0, 1, 1, 0
     3,  1, 1,   70,   70,  3.421778,         0, 0, 0, 0, 0, 1, 1, 0
     4,  1, 1,   68,   68,  74.04699,         0, 0, 0, 0, 0, 1, 1, 0
     5,  1, 1,   70,   70,  3.421778,         0, 0, 0, 0, 0, 1, 1, 0
     6,  1, 1,   70,   70,  3.421778,         0, 0, 0, 0, 0, 1, 1, 0
     7,  1, 1,   70,   70,  6.843556,         0, 0, 0, 0, 0, 1, 1, 0
     8,  1, 1,   70,   70,  6.843556,         0, 0, 0, 0, 0, 1, 1, 0
     9,  1, 1,   71,   71,   36.7275,         0, 0, 0, 0, 0, 1, 1, 0
    10,  1, 1,   68,   68,   14.8094,         0, 0, 0, 0, 0, 1, 1, 0
    11,  1, 1,   70,   70,  6.843556,         0, 0, 0, 0, 0, 1, 1, 0
    12,  1, 1,   70,   70,  3.421778,         0, 0, 0, 0, 0, 1, 1, 0
    13,  1, 1,   70,   70,  13.68711,         0, 0, 0, 0, 0, 1, 1, 0
    14,  1, 1,   69,   69,  4.154006,         0, 0, 0, 0, 0, 1, 1, 0
    15,  1, 1,   69,   69,  4.154006,         0, 0, 0, 0, 0, 1, 1, 0
    16,  1, 1,   69,   69,  10.38501,         0, 0, 0, 0, 0, 1, 1, 0
    17,  1, 1,   75,   75,  44.51853,         0, 0, 0, 0, 0, 1, 1, 0
    18,  1, 1,   75,   75,  41.73613,         0, 0, 0, 0, 0, 1, 1, 0
    19,  1, 1,   75,   75,  77.35096,         0, 0, 0, 0, 0, 1, 1, 0
    20,  1, 1,   69,   69,  8.308011,         0, 0, 0, 0, 0, 1, 1, 0
    21,  1, 1,   69,   69,  8.308011,         0, 0, 0, 0, 0, 1, 1, 0
    22,  1, 1,   70,   70,  1.538569,         0, 0, 0, 0, 0, 1, 1, 0
    23,  1, 1,   69,   69,  10.38501,         0, 0, 0, 0, 0, 1, 1, 0
    24,  1, 1,   67,   67,  20.89322,         0, 0, 0, 0, 0, 1, 1, 0
    25,  1, 1,   69,   69,  2.077003,         0, 0, 0, 0, 0, 1, 1, 0
    27,  1, 1,   67,   67,   8.35729,         0, 0, 0, 0, 0, 1, 1, 0
    28,  1, 1,   69,   69,  2.077003,         0, 0, 0, 0, 0, 1, 1, 0
    29,  1, 1,   67,   67,  16.71458,         0, 0, 0, 0, 0, 1, 1, 0
    30,  1, 1,   67,   67,  8.357291,         0, 0, 0, 0, 0, 1, 1, 0
    31,  1, 1,   70,   70,  3.421778,         0, 0, 0, 0, 0, 1, 1, 0
    32,  1, 1,   70,   70,  3.421778,         0, 0, 0, 0, 0, 1, 1, 0
    33,  1, 1,   65,   65,  5.050016,         0, 0, 0, 0, 0, 1, 1, 0
    34,  1, 1,   67,   67,   8.35729,         0, 0, 0, 0, 0, 1, 1, 0
    35,  1, 1,   68,   68,  35.23891,         0, 0, 0, 0, 0, 1, 1, 0
    36,  1, 1,   68,   68,  35.23891,         0, 0, 0, 0, 0, 1, 1, 0
    37,  1, 1,   65,   65,  7.575025,         0, 0, 0, 0, 0, 1, 1, 0
    38,  1, 1,   65,   65,  5.050016,         0, 0, 0, 0, 0, 1, 1, 0
    40,  1, 1,   69,   69,  2.077003,         0, 0, 0, 0, 0, 1, 1, 0
    41,  1, 1,   65,   65,  5.050016,         0, 0, 0, 0, 0, 1, 1, 0
    42,  1, 1,   65,   65,  17.67506,         0, 0, 0, 0, 0, 1, 1, 0
    43,  1, 1,   65,   65,  5.050016,         0, 0, 0, 0, 0, 1, 1, 0
    44,  1, 1,   65,   65,  2.525008,         0, 0, 0, 0, 0, 1, 1, 0
    45,  1, 1,   65,   65,  7.575025,         0, 0, 0, 0, 0, 1, 1, 0
    46,  1, 1,   65,   65,  5.050016,         0, 0, 0, 0, 0, 1, 1, 0
    47,  1, 1,   65,   65,  2.525008,         0, 0, 0, 0, 0, 1, 1, 0
    48,  1, 1,   65,   65,  10.10003,         0, 0, 0, 0, 0, 1, 1, 0
    49,  1, 1,   69,   69,  4.154006,         0, 0, 0, 0, 0, 1, 1, 0
    50,  1, 1,   69,   69,  4.154006,         0, 0, 0, 0, 0, 1, 1, 0
    51,  1, 1,   67,   67,  4.178645,         0, 0, 0, 0, 0, 1, 1, 0
    52,  1, 1,   67,   67,  4.178645,         0, 0, 0, 0, 0, 1, 1, 0
    53,  1, 1,   67,   67,   8.35729,         0, 0, 0, 0, 0, 1, 1, 0
    55,  1, 1,   67,   67,  12.53593,         0, 0, 0, 0, 0, 1, 1, 0
    56,  1, 1,   67,   67,   8.35729,         0, 0, 0, 0, 0, 1, 1, 0
    57,  1, 1,   67,   67,   8.35729,         0, 0, 0, 0, 0, 1, 1, 0
    58,  1, 1,   67,   67,  6.267966,         0, 0, 0, 0, 0, 1, 1, 0
    59,  1, 1,   69,   69,  14.53902,         0, 0, 0, 0, 0, 1, 1, 0
    60,  1, 1,   69,   69,  1.867808,         0, 0, 0, 0, 0, 1, 1, 0
    61,  1, 1,   67,   67,  12.53593,         0, 0, 0, 0, 0, 1, 1, 0
    64,  1, 1,   69,   69,  2.077003,         0, 0, 0, 0, 0, 1, 1, 0
    65,  1, 1,   65,   65,  5.050016,         0, 0, 0, 0, 0, 1, 1, 0
    66,  1, 1,   65,   65,  5.050016,         0, 0, 0, 0, 0, 1, 1, 0
    67,  1, 1,   65,   65,  2.525008,         0, 0, 0, 0, 0, 1, 1, 0
    68,  1, 1,   65,   65,  5.050016,         0, 0, 0, 0, 0, 1, 1, 0
    69,  1, 1,   65,   65,  12.62504,         0, 0, 0, 0, 0, 1, 1, 0
    70,  1, 1,   65,   65,  5.050016,         0, 0, 0, 0, 0, 1, 1, 0
    71,  1, 1,   65,   65,  7.575025,         0, 0, 0, 0, 0, 1, 1, 0
    72,  1, 1,   65,   65,  2.525008,         0, 0, 0, 0, 0, 1, 1, 0
    73,  1, 1,   65,   65,  5.050016,         0, 0, 0, 0, 0, 1, 1, 0
    74,  1, 1,   65,   65,  10.10003,         0, 0, 0, 0, 0, 1, 1, 0
    75,  1, 1,   65,   65,  2.525008,         0, 0, 0, 0, 0, 1, 1, 0
    76,  1, 1,   65,   65,  5.050016,         0, 0, 0, 0, 0, 1, 1, 0
    77,  1, 1,   65,   65,  12.62504,         0, 0, 0, 0, 0, 1, 1, 0
    78,  1, 1,   65,   65,  5.050016,         0, 0, 0, 0, 0, 1, 1, 0
    80,  1, 1,   69,   69,  4.154006,         0, 0, 0, 0, 0, 1, 1, 0
    81,  1, 1,   67,   67,  20.89322,         0, 0, 0, 0, 0, 1, 1, 0
    82,  1, 1,   69,   69,  2.077003,         0, 0, 0, 0, 0, 1, 1, 0
    83,  1, 1,   69,   69,  6.231008,         0, 0, 0, 0, 0, 1, 1, 0
    84,  1, 1,   70,   70,  3.421778,         0, 0, 0, 0, 0, 1, 1, 0
    85,  1, 1,   65,   65,  2.525008,         0, 0, 0, 0, 0, 1, 1, 0
    86,  1, 1,   65,   65,  5.050016,         0, 0, 0, 0, 0, 1, 1, 0
    87,  1, 1,   65,   65,  7.575025,         0, 0, 0, 0, 0, 1, 1, 0
    88,  1, 1,   65,   65,  5.050016,         0, 0, 0, 0, 0, 1, 1, 0
    89,  1, 1,   65,   65,  2.525008,         0, 0, 0, 0, 0, 1, 1, 0
    90,  1, 1,   65,   65,  5.050016,         0, 0, 0, 0, 0, 1, 1, 0
    91,  1, 1,   65,   65,  5.050016,         0, 0, 0, 0, 0, 1, 1, 0
    92,  1, 1,   66,   66,   14.3985,         0, 0, 0, 0, 0, 1, 1, 0
    93,  1, 1,   66,   66,   14.3985,         0, 0, 0, 0, 0, 1, 1, 0
    94,  1, 1,   66,   66,   14.3985,         0, 0, 0, 0, 0, 1, 1, 0
    95,  1, 1,   66,   66,  7.199249,         0, 0, 0, 0, 0, 1, 1, 0
    96,  1, 1,   66,   66,  7.199249,         0, 0, 0, 0, 0, 1, 1, 0
    97,  1, 1,   66,   66,   14.3985,         0, 0, 0, 0, 0, 1, 1, 0
    98,  1, 1,   66,   66,   14.3985,         0, 0, 0, 0, 0, 1, 1, 0
    99,  1, 1,   66,   66,   14.3985,         0, 0, 0, 0, 0, 1, 1, 0
   100,  1, 1,   66,   66,  7.199249,         0, 0, 0, 0, 0, 1, 1, 0
   101,  1, 1,   65,   65,  5.050016,         0, 0, 0, 0, 0, 1, 1, 0
   102,  1, 1,   65,   65,  5.050016,         0, 0, 0, 0, 0, 1, 1, 0
   103,  1, 1,   65,   65,  2.525008,         0, 0, 0, 0, 0, 1, 1, 0
   104,  1, 1,   65,   65,  5.050016,         0, 0, 0, 0, 0, 1, 1, 0
   105,  1, 1,   65,   65,  20.20006,         0, 0, 0, 0, 0, 1, 1, 0
   106,  1, 1,   65,   65,  5.050016,         0, 0, 0, 0, 0, 1, 1, 0
   107,  1, 1,   65,   65,  12.62504,         0, 0, 0, 0, 0, 1, 1, 0
   108,  1, 1,   67,   67,   8.35729,         0, 0, 0, 0, 0, 1, 1, 0
   109,  1, 1,   67,   67,   8.35729,         0, 0, 0, 0, 0, 1, 1, 0
   110,  1, 1,   67,   67,  12.53593,         0, 0, 0, 0, 0, 1, 1, 0
   111,  1, 1,   67,   67,   8.35729,         0, 0, 0, 0, 0, 1, 1, 0
   112,  1, 1,   67,   67,   8.35729,         0, 0, 0, 0, 0, 1, 1, 0
   113,  1, 1,   67,   67,   8.35729,         0, 0, 0, 0, 0, 1, 1, 0
   114,  1, 1,   67,   67,   8.35729,         0, 0, 0, 0, 0, 1, 1, 0
   115,  1, 1,   67,   67,   8.35729,         0, 0, 0, 0, 0, 1, 1, 0
   116,  1, 1,   67,   67,   8.35729,         0, 0, 0, 0, 0, 1, 1, 0
   117,  1, 1,   67,   67,  12.53593,         0, 0, 0, 0, 0, 1, 1, 0
   118,  1, 1,   67,   67,   8.35729,         0, 0, 0, 0, 0, 1, 1, 0
   119,  1, 1,   67,   67,   8.35729,         0, 0, 0, 0, 0, 1, 1, 0
   120,  1, 1,   67,   67,   8.35729,         0, 0, 0, 0, 0, 1, 1, 0
   121,  1, 1,   67,   67,   8.35729,         0, 0, 0, 0, 0, 1, 1, 0
   122,  1, 1,   67,   67,   8.35729,         0, 0, 0, 0, 0, 1, 1, 0
   123,  1, 1,   67,   67,   8.35729,         0, 0, 0, 0, 0, 1, 1, 0
   124,  1, 1,   67,   67,  25.07186,         0, 0, 0, 0, 0, 1, 1, 0
   125,  1, 1,   69,   69,  2.077003,         0, 0, 0, 0, 0, 1, 1, 0
   126,  1, 1,   69,   69,  2.077003,         0, 0, 0, 0, 0, 1, 1, 0
   127,  1, 1,   70,   70,  34.21778,         0, 0, 0, 0, 0, 1, 1, 0
   128,  1, 1,   66,   66,   43.1955,         0, 0, 0, 0, 0, 1, 1, 0
   129,  1, 1,   66,   66,  21.59775,         0, 0, 0, 0, 0, 1, 1, 0
   130,  1, 1,   66,   66,  7.199249,         0, 0, 0, 0, 0, 1, 1, 0
   131,  1, 1,   67,   67,  25.07187,         0, 0, 0, 0, 0, 1, 1, 0
   133,  1, 1,   67,   67,  12.53593,         0, 0, 0, 0, 0, 1, 1, 0
   134,  1, 1,   65,   65,  12.62504,         0, 0, 0, 0, 0, 1, 1, 0
   135,  1, 1,   65,   65,  5.050016,         0, 0, 0, 0, 0, 1, 1, 0
   136,  1, 1,   65,   65,  5.050016,         0, 0, 0, 0, 0, 1, 1, 0
   137,  1, 1,   65,   65,  5.050016,         0, 0, 0, 0, 0, 1, 1, 0
   139,  1, 1,   65,   65,  7.575025,         0, 0, 0, 0, 0, 1, 1, 0
   140,  1, 1,   65,   65,  10.75853,         0, 0, 0, 0, 0, 1, 1, 0
   141,  1, 1,   65,   65,  5.050016,         0, 0, 0, 0, 0, 1, 1, 0
   142,  1, 1,   65,   65,  7.575025,         0, 0, 0, 0, 0, 1, 1, 0
   143,  1, 1,   65,   65,  5.050016,         0, 0, 0, 0, 0, 1, 1, 0
   144,  1, 1,   65,   65,  5.050016,         0, 0, 0, 0, 0, 1, 1, 0
   145,  1, 1,   65,   65,  7.575025,         0, 0, 0, 0, 0, 1, 1, 0
   146,  1, 1,   65,   65,  2.525008,         0, 0, 0, 0, 0, 1, 1, 0
   147,  1, 1,   67,   67,  4.178645,         0, 0, 0, 0, 0, 1, 1, 0
   148,  1, 1,   67,   67,  4.178645,         0, 0, 0, 0, 0, 1, 1, 0
   149,  1, 1,   67,   67,  12.53593,         0, 0, 0, 0, 0, 1, 1, 0
   150,  1, 1,   67,   67,   8.35729,         0, 0, 0, 0, 0, 1, 1, 0
   151,  1, 1,   67,   67,  4.178645,         0, 0, 0, 0, 0, 1, 1, 0
   152,  1, 1,   67,   67,   8.35729,         0, 0, 0, 0, 0, 1, 1, 0
   153,  1, 1,   67,   67,  4.178645,         0, 0, 0, 0, 0, 1, 1, 0
   154,  1, 1,   67,   67,  12.53593,         0, 0, 0, 0, 0, 1, 1, 0
   155,  1, 1,   67,   67,  4.178645,         0, 0, 0, 0, 0, 1, 1, 0
   156,  1, 1,   67,   67,   8.35729,         0, 0, 0, 0, 0, 1, 1, 0
   157,  1, 1,   67,   67,  4.178645,         0, 0, 0, 0, 0, 1, 1, 0
   158,  1, 1,   67,   67,  4.178645,         0, 0, 0, 0, 0, 1, 1, 0
   159,  1, 1,   65,   65,  5.050016,         0, 0, 0, 0, 0, 1, 1, 0
   160,  1, 1,   65,   65,  2.525008,         0, 0, 0, 0, 0, 1, 1, 0
   161,  1, 1,   65,   65,  5.050016,         0, 0, 0, 0, 0, 1, 1, 0
   162,  1, 1,   65,   65,  10.10003,         0, 0, 0, 0, 0, 1, 1, 0
   163,  1, 1,   65,   65,  12.62504,         0, 0, 0, 0, 0, 1, 1, 0
   164,  1, 1,   65,   65,  2.525008,         0, 0, 0, 0, 0, 1, 1, 0
   165,  1, 1,   65,   65,  2.525008,         0, 0, 0, 0, 0, 1, 1, 0
   166,  1, 1,   65,   65,  2.525008,         0, 0, 0, 0, 0, 1, 1, 0
   167,  1, 1,   67,   67,   8.35729,         0, 0, 0, 0, 0, 1, 1, 0
   168,  1, 1,   69,   69,  2.077003,         0, 0, 0, 0, 0, 1, 1, 0
   169,  1, 1,   67,   67,   8.35729,         0, 0, 0, 0, 0, 1, 1, 0
   170,  1, 1,   67,   67,   8.35729,         0, 0, 0, 0, 0, 1, 1, 0
   171,  1, 1,   67,   67,  33.42916,         0, 0, 0, 0, 0, 1, 1, 0
   172,  1, 1,   67,   67,   8.35729,         0, 0, 0, 0, 0, 1, 1, 0
   173,  1, 1,   67,   67,  12.53593,         0, 0, 0, 0, 0, 1, 1, 0
   174,  1, 1,   67,   67,   8.35729,         0, 0, 0, 0, 0, 1, 1, 0
   175,  1, 1,   67,   67,   8.35729,         0, 0, 0, 0, 0, 1, 1, 0
   176,  1, 1,   67,   67,   8.35729,         0, 0, 0, 0, 0, 1, 1, 0
   177,  1, 1,   67,   67,  4.178645,         0, 0, 0, 0, 0, 1, 1, 0
   178,  1, 1,   67,   67,  12.53593,         0, 0, 0, 0, 0, 1, 1, 0
   179,  1, 1,   67,   67,   8.35729,         0, 0, 0, 0, 0, 1, 1, 0
   180,  1, 1,   67,   67,   8.35729,         0, 0, 0, 0, 0, 1, 1, 0
   181,  1, 1,   67,   67,   8.35729,         0, 0, 0, 0, 0, 1, 1, 0
   182,  1, 1,   67,   67,   8.35729,         0, 0, 0, 0, 0, 1, 1, 0
   183,  1, 1,   67,   67,   8.35729,         0, 0, 0, 0, 0, 1, 1, 0
   184,  1, 1,   67,   67,   8.35729,         0, 0, 0, 0, 0, 1, 1, 0
   185,  1, 1,   67,   67,   8.35729,         0, 0, 0, 0, 0, 1, 1, 0
   186,  1, 1,   69,   69,  6.231008,         0, 0, 0, 0, 0, 1, 1, 0
   187,  1, 1,   69,   69,  4.154006,         0, 0, 0, 0, 0, 1, 1, 0
   188,  1, 1,   69,   69,  4.154006,         0, 0, 0, 0, 0, 1, 1, 0
   189,  1, 1,   69,   69,  2.077003,         0, 0, 0, 0, 0, 1, 1, 0
   190,  1, 1,   68,   68,  29.61879,         0, 0, 0, 0, 0, 1, 1, 0
   191,  1, 1,   68,   68,  29.61879,         0, 0, 0, 0, 0, 1, 1, 0
   192,  1, 1,   68,   68,  44.42819,         0, 0, 0, 0, 0, 1, 1, 0
   193,  1, 1,   68,   68,  59.23759,         0, 0, 0, 0, 0, 1, 1, 0
   194,  1, 1,   70,   70,  20.53067,         0, 0, 0, 0, 0, 1, 1, 0
   195,  1, 1,   70,   70,  6.843556,         0, 0, 0, 0, 0, 1, 1, 0
   196,  1, 1,   70,   70,  6.843556,         0, 0, 0, 0, 0, 1, 1, 0
   197,  1, 1,   66,   66,   14.3985,         0, 0, 0, 0, 0, 1, 1, 0
   198,  1, 1,   66,   66,   14.3985,         0, 0, 0, 0, 0, 1, 1, 0
   199,  1, 1,   66,   66,   14.3985,         0, 0, 0, 0, 0, 1, 1, 0
   200,  1, 1,   66,   66,  21.59775,         0, 0, 0, 0, 0, 1, 1, 0
   201,  1, 1,   66,   66,   14.3985,         0, 0, 0, 0, 0, 1, 1, 0
   202,  1, 1,   67,   67,   8.35729,         0, 0, 0, 0, 0, 1, 1, 0
   203,  1, 1,   69,   69,  4.154006,         0, 0, 0, 0, 0, 1, 1, 0
   204,  1, 1,   69,   69,  6.231008,         0, 0, 0, 0, 0, 1, 1, 0
   205,  1, 1,   69,   69,  8.308011,         0, 0, 0, 0, 0, 1, 1, 0
   206,  1, 1,   69,   69,  4.154006,         0, 0, 0, 0, 0, 1, 1, 0
   207,  1, 1,   67,   67,  4.178645,         0, 0, 0, 0, 0, 1, 1, 0
   208,  1, 1,   67,   67,  12.53593,         0, 0, 0, 0, 0, 1, 1, 0
...
0 / END OF LOAD DATA, BEGIN FIXED SHUNT DATA
   240, 1, 1,       0, 43.1599
   485, 1, 1,       0, 40.1642
   489, 1, 1,       0, 15.0516
   512, 1, 1,       0, 29.8466
   539, 1, 1,       0, 1.46216
   570, 1, 1,       0, 2.22199
   587, 1, 1,       0,  35.536
   589, 1, 1,       0,     500
   609, 1, 1,       0, -96.7782
   733, 1, 1,       0, 18.9803
   736, 1, 1,       0, 45.9922
   737, 1, 1,       0,  4.1822
   738, 1, 1,       0, 7.46883
   739, 1, 1,       0, 17.0187
   861, 1, 1,       0, 28.9066
   999, 1, 1,       0,      40
  1138, 1, 1,       0, 21.4897
  1160, 1, 1,       0, 62.8161
  1161, 1, 1,       0, 14.1339
  1204, 1, 1,       0, 10.7597
  1484, 1, 1,       0, 22.8039
  1539, 1, 1,       0, 78.4379
0 / END OF FIXED SHUNT DATA, BEGIN GENERATOR DATA
     6,  1,  2.744616, -0.1886207,       1.8,      -1.5,     1.02, 0,     100, 0, 1, 0, 0, 1, 1, 100,       2.8,         1, 1, 1, 0, 1, 0, 1, 0, 1, 0, 1
     6,  1,  2.744616, -0.1886207,       1.8,      -1.5,     1.02, 0,     100, 0, 1, 0, 0, 1, 1, 100,       2.8,         1, 1, 1, 0, 1, 0, 1, 0, 1, 0, 1
     6,  1,   2.94066, -0.2296656,         2,      -1.7,     1.02, 0,     100, 0, 1, 0, 0, 1, 1, 100,         3,         1, 1, 1, 0, 1, 0, 1, 0, 1, 0, 1
     6,  1,   2.94066, -0.2296656,         2,      -1.7,     1.02, 0,     100, 0, 1, 0, 0, 1, 1, 100,         3,         1, 1, 1, 0, 1, 0, 1, 0, 1, 0, 1
    15,  1,  7.841761, -1.255401,       5.2,      -4.4,     1.02, 0,     100, 0, 1, 0, 0, 1, 1, 100,         8,         7, 1, 1, 0, 1, 0, 1, 0, 1, 0, 1
    15,  1,  7.841761, -1.255401,       5.2,      -4.4,     1.02, 0,     100, 0, 1, 0, 0, 1, 1, 100,         8,         7, 1, 1, 0, 1, 0, 1, 0, 1, 0, 1
    17,  1,  0.017716,      -9.9,      11.7,      -9.9,     1.01, 0,     100, 0, 1, 0, 0, 1, 1, 100,        18,      10.5, 1, 1, 0, 1, 0, 1, 0, 1, 0, 1
    17,  1,  17.88594,      -9.9,      11.7,      -9.9,     1.01, 0,     100, 0, 1, 0, 0, 1, 1, 100,        18,      11.4, 1, 1, 0, 1, 0, 1, 0, 1, 0, 1
    17,  1,  17.88594,      -9.9,      11.7,      -9.9,     1.01, 0,     100, 0, 1, 0, 0, 1, 1, 100,        18,        11, 1, 1, 0, 1, 0, 1, 0, 1, 0, 1
    17,  1,  17.88594,      -9.9,      11.7,      -9.9,     1.01, 0,     100, 0, 1, 0, 0, 1, 1, 100,        18,      11.2, 1, 1, 0, 1, 0, 1, 0, 1, 0, 1
    17,  1,  17.88594,      -9.9,      11.7,      -9.9,     1.01, 0,     100, 0, 1, 0, 0, 1, 1, 100,        18,      11.4, 1, 1, 0, 1, 0, 1, 0, 1, 0, 1
    17,  1,  17.88594,      -9.9,      11.7,      -9.9,     1.01, 0,     100, 0, 1, 0, 0, 1, 1, 100,        18,      10.7, 1, 1, 0, 1, 0, 1, 0, 1, 0, 1
    17,  1,  17.88594,      -9.9,      11.7,      -9.9,     1.01, 0,     100, 0, 1, 0, 0, 1, 1, 100,        18,         9, 1, 1, 0, 1, 0, 1, 0, 1, 0, 1
    17,  1,  41.53513,       -23,      27.2,       -23,     1.01, 0,     100, 0, 1, 0, 0, 1, 1, 100,      41.8,      29.8, 1, 1, 0, 1, 0, 1, 0, 1, 0, 1
    17,  1,         0,         0,      27.2,       -23,     1.01, 0,     100, 0, 1, 0, 0, 1, 0, 100,      41.8,        30, 1, 1, 0, 1, 0, 1, 0, 1, 0, 1
    17,  1,  0.041141,       -23,      27.2,       -23,     1.01, 0,     100, 0, 1, 0, 0, 1, 1, 100,      41.8,        30, 1, 1, 0, 1, 0, 1, 0, 1, 0, 1
    17,  1,  13.35401,       -23,      27.2,       -23,     1.01, 0,     100, 0, 1, 0, 0, 1, 1, 100,      41.8,        30, 1, 1, 0, 1, 0, 1, 0, 1, 0, 1
    17,  1,  139.6192,         0,     122.2,    -103.4,     1.01, 0,     100, 0, 1, 0, 0, 1, 1, 100,       188,        15, 1, 1, 0, 1, 0, 1, 0, 1, 0, 1
    17,  1,  186.8087,         0,     122.2,    -103.4,     1.01, 0,     100, 0, 1, 0, 0, 1, 1, 100,       188,        15, 1, 1, 0, 1, 0, 1, 0, 1, 0, 1
    18,  1,  15.89861,      -8.8,      10.4,      -8.8,     1.01, 0,     100, 0, 1, 0, 0, 1, 1, 100,        16,        10, 1, 1, 0, 1, 0, 1, 0, 1, 0, 1
    18,  1,  52.66416,         0,      34.5,     -29.2,     1.01, 0,     100, 0, 1, 0, 0, 1, 1, 100,        53,        37, 1, 1, 0, 1, 0, 1, 0, 1, 0, 1
    18,  1,  52.66416,         0,      34.5,     -29.2,     1.01, 0,     100, 0, 1, 0, 0, 1, 1, 100,        53,        37, 1, 1, 0, 1, 0, 1, 0, 1, 0, 1
    18,  1,  54.65149,     -30.3,      35.8,     -30.3,     1.01, 0,     100, 0, 1, 0, 0, 1, 1, 100,        55,        40, 1, 1, 0, 1, 0, 1, 0, 1, 0, 1
    18,  1,         0,         0,      35.8,     -30.3,     1.01, 0,     100, 0, 1, 0, 0, 1, 0, 100,        55,      44.1, 1, 1, 0, 1, 0, 1, 0, 1, 0, 1
    19,  1,  15.89861, 0.6913883,      10.4,      -8.8,     1.02, 0,     100, 0, 1, 0, 0, 1, 1, 100,        16,      10.6, 1, 1, 0, 1, 0, 1, 0, 1, 0, 1
    19,  1,         0,         0,     251.6,    -212.9,     1.02, 0,     100, 0, 1, 0, 0, 1, 0, 100,       387,        40, 1, 1, 0, 1, 0, 1, 0, 1, 0, 1
    19,  1,  384.5477,  16.72239,     251.6,    -212.9,     1.02, 0,     100, 0, 1, 0, 0, 1, 1, 100,       387,        30, 1, 1, 0, 1, 0, 1, 0, 1, 0, 1
    19,  1,       387,  16.72239,     251.6,    -212.9,     1.02, 0,     100, 0, 1, 0, 0, 1, 1, 100,       387,        40, 1, 1, 0, 1, 0, 1, 0, 1, 0, 1
    19,  1,       387,  16.72239,     251.6,    -212.9,     1.02, 0,     100, 0, 1, 0, 0, 1, 1, 100,       387,        40, 1, 1, 0, 1, 0, 1, 0, 1, 0, 1
    19,  1,       130, -112.0058,      9900,     -9900,     1.02, 0,     100, 0, 1, 0, 0, 1, 1, 100,       130,       130, 1, 1, 0, 1, 0, 1, 0, 1, 0, 1
    21,  1,  10.78242,       7.2,       7.2,      -6.1,     1.02, 0,     100, 0, 1, 0, 0, 1, 1, 100,        11,       0.2, 1, 1, 0, 1, 0, 1, 0, 1, 0, 1
    21,  1,  11.76264,       7.8,       7.8,      -6.6,     1.02, 0,     100, 0, 1, 0, 0, 1, 1, 100,        12,       0.2, 1, 1, 0, 1, 0, 1, 0, 1, 0, 1
    21,  1,  12.74286,       8.5,       8.5,      -7.2,     1.02, 0,     100, 0, 1, 0, 0, 1, 1, 100,        13,       0.2, 1, 1, 0, 1, 0, 1, 0, 1, 0, 1
    24,  1,  8.821981,  4.910682,       5.9,        -5,     1.02, 0,     100, 0, 1, 0, 0, 1, 1, 100,         9,         3, 1, 1, 0, 1, 0, 1, 0, 1, 0, 1
    24,  1,  8.821981,  4.910682,       5.9,        -5,     1.02, 0,     100, 0, 1, 0, 0, 1, 1, 100,         9,         3, 1, 1, 0, 1, 0, 1, 0, 1, 0, 1
    24,  1,  8.821981,  4.910682,       5.9,        -5,     1.02, 0,     100, 0, 1, 0, 0, 1, 1, 100,         9,         3, 1, 1, 0, 1, 0, 1, 0, 1, 0, 1
    24,  1,  8.821981,  4.910682,       5.9,        -5,     1.02, 0,     100, 0, 1, 0, 0, 1, 1, 100,         9,         3, 1, 1, 0, 1, 0, 1, 0, 1, 0, 1
    26,  1,       595,  37.84423,    446.25,    -416.5,     1.02, 0,     100, 0, 1, 0, 0, 1, 1, 100,       595,       320, 1, 1, 0, 1, 0, 1, 0, 1, 0, 1
    26,  1,       650,  37.84423,     487.5,      -455,     1.02, 0,     100, 0, 1, 0, 0, 1, 1, 100,       650,       320, 1, 1, 0, 1, 0, 1, 0, 1, 0, 1
    27,  1,  121.8231,  44.63975,     91.95,    -85.82,     1.02, 0,     100, 0, 1, 0, 0, 1, 1, 100,     122.6,        42, 1, 1, 0, 1, 0, 1, 0, 1, 0, 1
    28,  1,         0,         0,    47.175,    -44.03,     1.02, 0,     100, 0, 1, 0, 0, 1, 0, 100,      62.9,        35, 1, 1, 0, 1, 0, 1, 0, 1, 0, 1
    29,  1,  111.2903, -8.324369,      72.8,     -61.6,     1.02, 0,     100, 0, 1, 0, 0, 1, 1, 100,       112,        32, 1, 1, 0, 1, 0, 1, 0, 1, 0, 1
    30,  1,   4.07402, -0.2553287,       2.7,      -2.3,     1.02, 0,     100, 0, 1, 0, 0, 1, 1, 100,       4.1,         0, 1, 1, 0, 1, 0, 1, 0, 1, 1, 1
    30,  1,  55.04895, -3.305872,        36,     -30.5,     1.02, 0,     100, 0, 1, 0, 0, 1, 1, 100,      55.4,         0, 1, 1, 0, 1, 0, 1, 0, 1, 1, 1
    31,  1,   0.98022, -0.2165069,       0.7,      -0.6,     1.02, 0,     100, 0, 1, 0, 0, 1, 1, 100,         1,       0.2, 1, 1, 0, 1, 0, 1, 0, 1, 0, 1
    31,  1,   0.98022, -0.2165069,       0.7,      -0.6,     1.02, 0,     100, 0, 1, 0, 0, 1, 1, 100,         1,       0.2, 1, 1, 0, 1, 0, 1, 0, 1, 0, 1
    31,  1,  2.548572, -0.4855165,       1.7,      -1.4,     1.02, 0,     100, 0, 1, 0, 0, 1, 1, 100,       2.6,       0.9, 1, 1, 0, 1, 0, 1, 0, 1, 0, 1
    31,  1,  2.548572, -0.4855165,       1.7,      -1.4,     1.02, 0,     100, 0, 1, 0, 0, 1, 1, 100,       2.6,       0.9, 1, 1, 0, 1, 0, 1, 0, 1, 0, 1
    31,  1,  2.548572, -0.4855165,       1.7,      -1.4,     1.02, 0,     100, 0, 1, 0, 0, 1, 1, 100,       2.6,       2.3, 1, 1, 0, 1, 0, 1, 0, 1, 0, 1
    31,  1,  24.11341, -4.797658,        16,     -13.5,     1.02, 0,     100, 0, 1, 0, 0, 1, 1, 100,      24.6,         6, 1, 1, 0, 1, 0, 1, 0, 1, 0, 1
    31,  1,  24.11341, -4.797658,        16,     -13.5,     1.02, 0,     100, 0, 1, 0, 0, 1, 1, 100,      24.6,         6, 1, 1, 0, 1, 0, 1, 0, 1, 0, 1
    32,  1,       147, -32.94059,    110.25,    -102.9,     1.02, 0,     100, 0, 1, 0, 0, 1, 1, 100,       147,       113, 1, 1, 0, 1, 0, 1, 0, 1, 0, 1
    33,  1,  56.24135, -9.978033,     42.45,    -39.62,     1.02, 0,     100, 0, 1, 0, 0, 1, 1, 100,      56.6,        44, 1, 1, 0, 1, 0, 1, 0, 1, 0, 1
    34,  1,  57.03628,  14.68649,     43.05,    -40.18,     1.02, 0,     100, 0, 1, 0, 0, 1, 1, 100,      57.4,      44.5, 1, 1, 0, 1, 0, 1, 0, 1, 0, 1
    35,  1,  3.136704,       2.1,       2.1,      -1.8,     1.02, 0,     100, 0, 1, 0, 0, 1, 1, 100,       3.2,         0, 1, 1, 0, 1, 0, 1, 0, 1, 0, 1
    35,  1,  3.136704,       2.1,       2.1,      -1.8,     1.02, 0,     100, 0, 1, 0, 0, 1, 1, 100,       3.2,         0, 1, 1, 0, 1, 0, 1, 0, 1, 0, 1
    35,  1,   3.92088,       2.6,       2.6,      -2.2,     1.02, 0,     100, 0, 1, 0, 0, 1, 1, 100,         4,         0, 1, 1, 0, 1, 0, 1, 0, 1, 0, 1
    35,  1,   3.92088,       2.6,       2.6,      -2.2,     1.02, 0,     100, 0, 1, 0, 0, 1, 1, 100,         4,         0, 1, 1, 0, 1, 0, 1, 0, 1, 0, 1
    35,  1,   5.88132,       3.9,       3.9,      -3.3,     1.02, 0,     100, 0, 1, 0, 0, 1, 1, 100,         6,         0, 1, 1, 0, 1, 0, 1, 0, 1, 0, 1
    35,  1,  6.861541,       4.6,       4.6,      -3.9,     1.02, 0,     100, 0, 1, 0, 0, 1, 1, 100,         7,         0, 1, 1, 0, 1, 0, 1, 0, 1, 0, 1
    37,  1,  190.4351,  23.97703,   165.975,   -154.91,     1.02, 0,     100, 0, 1, 0, 0, 1, 1, 100,     221.3,       104, 1, 1, 0, 1, 0, 1, 0, 1, 0, 1
    38,  1,  99.86317, -12.17966,      70.4,     -55.3,     1.02, 0,     100, 0, 1, 0, 0, 1, 1, 100,     100.5,         0, 1, 1, 0, 1, 0, 1, 0, 1, 1, 1
    39,  1,  125.2016, -11.90437,      88.2,     -69.3,     1.02, 0,     100, 0, 1, 0, 0, 1, 1, 100,       126,         0, 1, 1, 0, 1, 0, 1, 0, 1, 1, 1
    41,  1,  65.28368,  14.88021,    49.275,    -45.99,     1.02, 0,     100, 0, 1, 0, 0, 1, 1, 100,      65.7,      40.6, 1, 1, 0, 1, 0, 1, 0, 1, 0, 1
    52,  1,  16.09735, -0.08755598,      11.3,      -8.9,     1.02, 0,     100, 0, 1, 0, 0, 1, 1, 100,      16.2,         0, 1, 1, 0, 1, 0, 1, 0, 1, 1, 1
    53,  1,  37.26237, -8.525665,      26.3,     -20.6,     1.02, 0,     100, 0, 1, 0, 0, 1, 1, 100,      37.5,         0, 1, 1, 0, 1, 0, 1, 0, 1, 1, 1
    60,  1,  0.784176, 0.2467626,       0.6,      -0.4,     1.02, 0,     100, 0, 1, 0, 0, 1, 1, 100,       0.8,       0.4, 1, 1, 0, 1, 0, 1, 0, 1, 0, 1
    60,  1,  9.802201,  2.584532,         7,      -5.5,     1.02, 0,     100, 0, 1, 0, 0, 1, 1, 100,        10,         4, 1, 1, 0, 1, 0, 1, 0, 1, 0, 1
    63,  1,         0,         0,     66.15,    -61.74,     1.02, 0,     100, 0, 1, 0, 0, 1, 0, 100,      88.2,        60, 1, 1, 0, 1, 0, 1, 0, 1, 0, 1
    63,  1,  653.6434,  8.932241,   490.275,   -457.59,     1.02, 0,     100, 0, 1, 0, 0, 1, 1, 100,     653.7,       315, 1, 1, 0, 1, 0, 1, 0, 1, 0, 1
    69,  1,         0,         0,      17.2,     -13.5,     1.02, 0,     100, 0, 1, 0, 0, 1, 0, 100,      24.5,         5, 1, 1, 0, 1, 0, 1, 0, 1, 0, 1
    69,  1,  24.34475, -1.348765,      17.2,     -13.5,     1.02, 0,     100, 0, 1, 0, 0, 1, 1, 100,      24.5,         5, 1, 1, 0, 1, 0, 1, 0, 1, 0, 1
    69,  1,  47.00027, -2.607883,      33.1,       -26,     1.02, 0,     100, 0, 1, 0, 0, 1, 1, 100,      47.3,         9, 1, 1, 0, 1, 0, 1, 0, 1, 0, 1
    69,  1,         0,         0,        20,       -20,     1.02, 0,     100, 0, 1, 0, 0, 1, 0, 100,         0,         0, 1, 1, 0, 1, 0, 1, 0, 1, 0, 1
    79,  1,         0,         0,       0.7,      -0.6,     1.02, 0,     100, 0, 1, 0, 0, 1, 0, 100,         1,       0.3, 1, 1, 0, 1, 0, 1, 0, 1, 0, 1
    79,  1,         0,         0,       0.9,      -0.7,     1.02, 0,     100, 0, 1, 0, 0, 1, 0, 100,       1.3,       0.4, 1, 1, 0, 1, 0, 1, 0, 1, 0, 1
    79,  1,         0,         0,         1,      -0.8,     1.02, 0,     100, 0, 1, 0, 0, 1, 0, 100,       1.4,       0.4, 1, 1, 0, 1, 0, 1, 0, 1, 0, 1
    79,  1,         0,         0,         1,      -0.8,     1.02, 0,     100, 0, 1, 0, 0, 1, 0, 100,       1.4,       0.4, 1, 1, 0, 1, 0, 1, 0, 1, 0, 1
    79,  1,         0,         0,       1.8,      -1.4,     1.02, 0,     100, 0, 1, 0, 0, 1, 0, 100,       2.5,       0.1, 1, 1, 0, 1, 0, 1, 0, 1, 0, 1
    79,  1,         0,         0,       1.9,      -1.5,     1.02, 0,     100, 0, 1, 0, 0, 1, 0, 100,       2.7,       0.8, 1, 1, 0, 1, 0, 1, 0, 1, 0, 1
    79,  1,         0,         0,       1.9,      -1.5,     1.02, 0,     100, 0, 1, 0, 0, 1, 0, 100,       2.7,       0.8, 1, 1, 0, 1, 0, 1, 0, 1, 0, 1
    79,  1,         0,         0,       2.1,      -1.7,     1.02, 0,     100, 0, 1, 0, 0, 1, 0, 100,         3,       0.1, 1, 1, 0, 1, 0, 1, 0, 1, 0, 1
    79,  1,         0,         0,       2.1,      -1.7,     1.02, 0,     100, 0, 1, 0, 0, 1, 0, 100,         3,       0.1, 1, 1, 0, 1, 0, 1, 0, 1, 0, 1
    79,  1,  7.452475, -0.5413411,       5.3,      -4.1,     1.02, 0,     100, 0, 1, 0, 0, 1, 1, 100,       7.5,         4, 1, 1, 0, 1, 0, 1, 0, 1, 0, 1
    79,  1,  46.70218, -3.639453,      32.9,     -25.9,     1.02, 0,     100, 0, 1, 0, 0, 1, 1, 100,        47,         1, 1, 1, 0, 1, 0, 1, 0, 1, 0, 1
    79,  1,         0,         0,     109.3,     -85.9,     1.02, 0,     100, 0, 1, 0, 0, 1, 0, 100,     156.2,        45, 1, 1, 0, 1, 0, 1, 0, 1, 0, 1
    79,  1,  178.8594, -13.81933,       126,       -99,     1.02, 0,     100, 0, 1, 0, 0, 1, 1, 100,       180,       110, 1, 1, 0, 1, 0, 1, 0, 1, 0, 1
    79,  1,  178.8594, -13.81933,       126,       -99,     1.02, 0,     100, 0, 1, 0, 0, 1, 1, 100,       180,       110, 1, 1, 0, 1, 0, 1, 0, 1, 0, 1
    79,  1,         0,         0,       140,      -110,     1.02, 0,     100, 0, 1, 0, 0, 1, 0, 100,       200,        65, 1, 1, 0, 1, 0, 1, 0, 1, 0, 1
    80,  1,  55.14832, -6.634769,      38.9,     -30.5,     1.02, 0,     100, 0, 1, 0, 0, 1, 1, 100,      55.5,        15, 1, 1, 0, 1, 0, 1, 0, 1, 0, 1
    81,  1,         0,         0,        20,       -20,   1.0221, 0,     100, 0, 1, 0, 0, 1, 0, 100,         0,         0, 1, 1, 0, 1, 0, 1, 0, 1, 0, 1
    82,  1,  34.28139, -5.129813,      24.2,       -19,     1.02, 0,     100, 0, 1, 0, 0, 1, 1, 100,      34.5,         0, 1, 1, 0, 1, 0, 1, 0, 1, 1, 1
    83,  1,  7.841761, -2.031694,       5.6,      -4.4,     1.02, 0,     100, 0, 1, 0, 0, 1, 1, 100,         8,         4, 1, 1, 0, 1, 0, 1, 0, 1, 0, 1
    83,  1,  7.841761, -2.031694,       5.6,      -4.4,     1.02, 0,     100, 0, 1, 0, 0, 1, 1, 100,         8,         4, 1, 1, 0, 1, 0, 1, 0, 1, 0, 1
    84,  1,  10.78242, -0.9911375,       7.7,      -6.1,     1.02, 0,     100, 0, 1, 0, 0, 1, 1, 100,        11,         1, 1, 1, 0, 1, 0, 1, 0, 1, 0, 1
    84,  1,  10.78242, -0.9911375,       7.7,      -6.1,     1.02, 0,     100, 0, 1, 0, 0, 1, 1, 100,        11,         1, 1, 1, 0, 1, 0, 1, 0, 1, 0, 1
    95,  1,  66.57544, -0.04298731,     50.25,     -46.9,     1.02, 0,     100, 0, 1, 0, 0, 1, 1, 100,        67,        37, 1, 1, 0, 1, 0, 1, 0, 1, 0, 1
   116,  1,  47.39774, -19.33332,      33.4,     -26.2,     1.02, 0,     100, 0, 1, 0, 0, 1, 1, 100,      47.7,        42, 1, 1, 0, 1, 0, 1, 0, 1, 0, 1
   125,  1,         0,         0,       1.4,      -1.1,     1.02, 0,     100, 0, 1, 0, 0, 1, 0, 100,         2,       0.1, 1, 1, 0, 1, 0, 1, 0, 1, 0, 1
   125,  1,         0,         0,    76.575,    -71.47,     1.02, 0,     100, 0, 1, 0, 0, 1, 0, 100,     102.1,        76, 1, 1, 0, 1, 0, 1, 0, 1, 0, 1
   127,  1,   708.879,  -62.3476,   669.825,   -625.17,     1.02, 0,     100, 0, 1, 0, 0, 1, 1, 100,     893.1,     666.4, 1, 1, 0, 1, 0, 1, 0, 1, 0, 1
   128,  1,  610.1093, -34.84672,     429.8,    -337.7,     1.02, 0,     100, 0, 1, 0, 0, 1, 1, 100,       614,       461, 1, 1, 0, 1, 0, 1, 0, 1, 0, 1
   150,  1,         0,         0,       0.7,      -0.6,     1.02, 0,     100, 0, 1, 0, 0, 1, 0, 100,         1,       0.3, 1, 1, 0, 1, 0, 1, 0, 1, 0, 1
   150,  1,         0,         0,       0.7,      -0.6,     1.02, 0,     100, 0, 1, 0, 0, 1, 0, 100,         1,       0.3, 1, 1, 0, 1, 0, 1, 0, 1, 0, 1
   150,  1,         0,         0,      12.6,    -11.76,     1.02, 0,     100, 0, 1, 0, 0, 1, 0, 100,      16.8,       8.2, 1, 1, 0, 1, 0, 1, 0, 1, 0, 1
   150,  1,         0,         0,    15.525,    -14.49,     1.02, 0,     100, 0, 1, 0, 0, 1, 0, 100,      20.7,       8.4, 1, 1, 0, 1, 0, 1, 0, 1, 0, 1
   161,  1,  19.87327,         0,        14,       -11,     1.02, 0,     100, 0, 1, 0, 0, 1, 1, 100,        20,         0, 1, 1, 0, 1, 0, 1, 0, 1, 1, 1
   178,  1,         0,         0,    77.025,    -71.89,     1.02, 0,     100, 0, 1, 0, 0, 1, 0, 100,     102.7,        45, 1, 1, 0, 1, 0, 1, 0, 1, 0, 1
   193,  1,         0,         0,     214.2,   -199.92,     1.02, 0,     100, 0, 1, 0, 0, 1, 0, 100,     285.6,        90, 1, 1, 0, 1, 0, 1, 0, 1, 0, 1
   194,  1,  19.87327,         0,        14,       -11,     1.02, 0,     100, 0, 1, 0, 0, 1, 1, 100,        20,         0, 1, 1, 0, 1, 0, 1, 0, 1, 0, 1
   199,  1,         0,         0,         5,        -4,     1.02, 0,     100, 0, 1, 0, 0, 1, 0, 100,       7.2,         1, 1, 1, 0, 1, 0, 1, 0, 1, 0, 1
   199,  1,         0,         0,      12.7,       -10,     1.02, 0,     100, 0, 1, 0, 0, 1, 0, 100,      18.2,         2, 1, 1, 0, 1, 0, 1, 0, 1, 0, 1
   212,  1,         0,         0,       0.6,      -0.4,     1.02, 0,     100, 0, 1, 0, 0, 1, 0, 100,       0.8,       0.6, 1, 1, 0, 1, 0, 1, 0, 1, 0, 1
   212,  1,         0,         0,       0.6,      -0.4,     1.02, 0,     100, 0, 1, 0, 0, 1, 0, 100,       0.8,       0.6, 1, 1, 0, 1, 0, 1, 0, 1, 0, 1
   212,  1,         0,         0,       0.6,      -0.4,     1.02, 0,     100, 0, 1, 0, 0, 1, 0, 100,       0.8,       0.6, 1, 1, 0, 1, 0, 1, 0, 1, 0, 1
   212,  1,         0,         0,       0.6,      -0.4,     1.02, 0,     100, 0, 1, 0, 0, 1, 0, 100,       0.8,       0.6, 1, 1, 0, 1, 0, 1, 0, 1, 0, 1
   212,  1,         0,         0,       0.6,      -0.4,     1.02, 0,     100, 0, 1, 0, 0, 1, 0, 100,       0.8,       0.6, 1, 1, 0, 1, 0, 1, 0, 1, 0, 1
   212,  1,         0,         0,       0.6,      -0.4,     1.02, 0,     100, 0, 1, 0, 0, 1, 0, 100,       0.8,       0.6, 1, 1, 0, 1, 0, 1, 0, 1, 0, 1
   212,  1,         0,         0,       0.6,      -0.4,     1.02, 0,     100, 0, 1, 0, 0, 1, 0, 100,       0.8,       0.6, 1, 1, 0, 1, 0, 1, 0, 1, 0, 1
   212,  1,         0,         0,       0.6,      -0.4,     1.02, 0,     100, 0, 1, 0, 0, 1, 0, 100,       0.8,       0.6, 1, 1, 0, 1, 0, 1, 0, 1, 0, 1
   212,  1,         0,         0,       1.1,      -0.9,     1.02, 0,     100, 0, 1, 0, 0, 1, 0, 100,       1.6,       0.8, 1, 1, 0, 1, 0, 1, 0, 1, 0, 1
   212,  1,         0,         0,       1.1,      -0.9,     1.02, 0,     100, 0, 1, 0, 0, 1, 0, 100,       1.6,       0.8, 1, 1, 0, 1, 0, 1, 0, 1, 0, 1
   212,  1,         0,         0,       1.1,      -0.9,     1.02, 0,     100, 0, 1, 0, 0, 1, 0, 100,       1.6,       0.8, 1, 1, 0, 1, 0, 1, 0, 1, 0, 1
   234,  1,         0,         0,       0.8,      -0.6,     1.02, 0,     100, 0, 1, 0, 0, 1, 0, 100,       1.1,       0.5, 1, 1, 0, 1, 0, 1, 0, 1, 0, 1
   234,  1,         0,         0,     49.65,    -46.34,     1.02, 0,     100, 0, 1, 0, 0, 1, 0, 100,      66.2,      48.8, 1, 1, 0, 1, 0, 1, 0, 1, 0, 1
   250,  1,  0.392088,       0.3,       0.3,      -0.2,     1.02, 0,     100, 0, 1, 0, 0, 1, 1, 100,       0.4,       0.1, 1, 1, 0, 1, 0, 1, 0, 1, 0, 1
   250,  1,         0,         0,       2.1,      -1.7,     1.02, 0,     100, 0, 1, 0, 0, 1, 0, 100,         3,       0.4, 1, 1, 0, 1, 0, 1, 0, 1, 0, 1
   250,  1,         0,         0,       8.8,      -6.9,     1.02, 0,     100, 0, 1, 0, 0, 1, 0, 100,      12.5,         4, 1, 1, 0, 1, 0, 1, 0, 1, 0, 1
   250,  1,  12.54682,         9,         9,        -7,     1.02, 0,     100, 0, 1, 0, 0, 1, 1, 100,      12.8,         0, 1, 1, 0, 1, 0, 1, 0, 1, 0, 1
   250,  1,  12.54682,         9,         9,        -7,     1.02, 0,     100, 0, 1, 0, 0, 1, 1, 100,      12.8,         0, 1, 1, 0, 1, 0, 1, 0, 1, 0, 1
   250,  1,         0,         0,      10.5,      -8.3,     1.02, 0,     100, 0, 1, 0, 0, 1, 0, 100,        15,         4, 1, 1, 0, 1, 0, 1, 0, 1, 0, 1
   250,  1,  17.64396,      12.6,      12.6,      -9.9,     1.02, 0,     100, 0, 1, 0, 0, 1, 1, 100,        18,         0, 1, 1, 0, 1, 0, 1, 0, 1, 0, 1
   250,  1,         0,         0,      17.9,     -14.1,     1.02, 0,     100, 0, 1, 0, 0, 1, 0, 100,      25.6,         5, 1, 1, 0, 1, 0, 1, 0, 1, 0, 1
   250,  1,         0,         0,      17.9,     -14.1,     1.02, 0,     100, 0, 1, 0, 0, 1, 0, 100,      25.6,         5, 1, 1, 0, 1, 0, 1, 0, 1, 0, 1
   250,  1,         0,         0,      17.9,     -14.1,     1.02, 0,     100, 0, 1, 0, 0, 1, 0, 100,      25.6,         5, 1, 1, 0, 1, 0, 1, 0, 1, 0, 1
   250,  1,         0,         0,      17.9,     -14.1,     1.02, 0,     100, 0, 1, 0, 0, 1, 0, 100,      25.6,         5, 1, 1, 0, 1, 0, 1, 0, 1, 0, 1
   284,  1,  24.84158,  12.38092,      17.5,     -13.8,     1.02, 0,     100, 0, 1, 0, 0, 1, 1, 100,        25,         3, 1, 1, 0, 1, 0, 1, 0, 1, 0, 1
   284,  1,  24.84158,  12.38092,      17.5,     -13.8,     1.02, 0,     100, 0, 1, 0, 0, 1, 1, 100,        25,         3, 1, 1, 0, 1, 0, 1, 0, 1, 0, 1
   317,  1,  59.52043, 0.4778066,    44.925,    -41.93,     1.02, 0,     100, 0, 1, 0, 0, 1, 1, 100,      59.9,        40, 1, 1, 0, 1, 0, 1, 0, 1, 0, 1
   339,  1,   39.2497,  21.00849,      27.7,     -21.7,     1.02, 0,     100, 0, 1, 0, 0, 1, 1, 100,      39.5,       3.5, 1, 1, 0, 1, 0, 1, 0, 1, 0, 1
   357,  1,  877.7029, -39.00729,     618.3,    -485.8,     1.02, 0,     100, 0, 1, 0, 0, 1, 1, 100,     883.3,       662, 1, 1, 0, 1, 0, 1, 0, 1, 0, 1
   358,  1,  542.5344, -29.92927,   407.175,   -380.03,     1.02, 0,     100, 0, 1, 0, 0, 1, 1, 100,     542.9,       225, 1, 1, 0, 1, 0, 1, 0, 1, 0, 1
   358,  1,     543.2, -29.94583,     407.4,   -380.24,     1.02, 0,     100, 0, 1, 0, 0, 1, 1, 100,     543.2,       225, 1, 1, 0, 1, 0, 1, 0, 1, 0, 1
   368,  1,   29.8099,  6.310353,        21,     -16.5,     1.02, 0,     100, 0, 1, 0, 0, 1, 1, 100,        30,       0.1, 1, 1, 0, 1, 0, 1, 0, 1, 1, 1
   378,  1,   3.92088,  1.872466,       2.8,      -2.2,     1.02, 0,     100, 0, 1, 0, 0, 1, 1, 100,         4,       2.8, 1, 1, 0, 1, 0, 1, 0, 1, 0, 1
   378,  1,   3.92088,  1.872466,       2.8,      -2.2,     1.02, 0,     100, 0, 1, 0, 0, 1, 1, 100,         4,       2.8, 1, 1, 0, 1, 0, 1, 0, 1, 0, 1
   378,  1,   3.92088,  1.872466,       2.8,      -2.2,     1.02, 0,     100, 0, 1, 0, 0, 1, 1, 100,         4,       2.8, 1, 1, 0, 1, 0, 1, 0, 1, 0, 1
   381,  1,         0,         0,       0.8,      -0.6,     1.02, 0,     100, 0, 1, 0, 0, 1, 0, 100,       1.1,       0.2, 1, 1, 0, 1, 0, 1, 0, 1, 0, 1
   381,  1,  63.79319,  1.442711,     48.15,    -44.94,     1.02, 0,     100, 0, 1, 0, 0, 1, 1, 100,      64.2,        47, 1, 1, 0, 1, 0, 1, 0, 1, 0, 1
   395,  1,  32.79089, -7.215741,      23.1,     -18.2,     1.02, 0,     100, 0, 1, 0, 0, 1, 1, 100,        33,       0.3, 1, 1, 0, 1, 0, 1, 0, 1, 1, 1
   395,  1,  60.61346, -13.30705,      42.7,     -33.6,     1.02, 0,     100, 0, 1, 0, 0, 1, 1, 100,        61,       0.5, 1, 1, 0, 1, 0, 1, 0, 1, 1, 1
   395,  1,  90.42336, -19.83345,      63.7,     -50.1,     1.02, 0,     100, 0, 1, 0, 0, 1, 1, 100,        91,       0.7, 1, 1, 0, 1, 0, 1, 0, 1, 1, 1
   395,  1,  136.1319,  -29.8406,      95.9,     -75.4,     1.02, 0,     100, 0, 1, 0, 0, 1, 1, 100,       137,       1.1, 1, 1, 0, 1, 0, 1, 0, 1, 1, 1
   399,  1,  73.53109,  4.057785,      51.8,     -40.7,     1.02, 0,     100, 0, 1, 0, 0, 1, 1, 100,        74,         0, 1, 1, 0, 1, 0, 1, 0, 1, 1, 1
   405,  1,  25.48572,  -3.76251,      18.2,     -14.3,     1.02, 0,     100, 0, 1, 0, 0, 1, 1, 100,        26,         1, 1, 1, 0, 1, 0, 1, 0, 1, 0, 1
   406,  1,   14.7033,  -1.36345,      10.5,      -8.3,     1.02, 0,     100, 0, 1, 0, 0, 1, 1, 100,        15,         1, 1, 1, 0, 1, 0, 1, 0, 1, 0, 1
   407,  1,   24.5055, -3.852521,      17.5,     -13.8,     1.02, 0,     100, 0, 1, 0, 0, 1, 1, 100,        25,         1, 1, 1, 0, 1, 0, 1, 0, 1, 0, 1
   408,  1,  23.52528, -3.516544,      16.8,     -13.2,     1.02, 0,     100, 0, 1, 0, 0, 1, 1, 100,        24,         1, 1, 1, 0, 1, 0, 1, 0, 1, 0, 1
   409,  1,  20.58462,    1.9289,      14.7,     -11.6,     1.02, 0,     100, 0, 1, 0, 0, 1, 1, 100,        21,         1, 1, 1, 0, 1, 0, 1, 0, 1, 0, 1
   463,  1,  1.274286, -0.02569944,       0.9,      -0.7,     1.02, 0,     100, 0, 1, 0, 0, 1, 1, 100,       1.3,       0.2, 1, 1, 0, 1, 0, 1, 0, 1, 0, 1
   463,  1,  6.861541, -0.1913469,       4.9,      -3.9,     1.02, 0,     100, 0, 1, 0, 0, 1, 1, 100,         7,         1, 1, 1, 0, 1, 0, 1, 0, 1, 0, 1
   463,  1,  6.861541, -0.1913469,       4.9,      -3.9,     1.02, 0,     100, 0, 1, 0, 0, 1, 1, 100,         7,         1, 1, 1, 0, 1, 0, 1, 0, 1, 0, 1
   463,  1,  6.861541, -0.1913469,       4.9,      -3.9,     1.02, 0,     100, 0, 1, 0, 0, 1, 1, 100,         7,         1, 1, 1, 0, 1, 0, 1, 0, 1, 0, 1
...